First file. 
New line.
Third line in first file.
